LAMMPS (3 Mar 2020)
include "system.in.init"
units metal
atom_style full
bond_style harmonic
angle_style harmonic
dihedral_style opls
improper_style harmonic
pair_style hybrid/overlay lj/cut/coul/long 11.0 11.0 eam
special_bonds lj/coul 0.0 0.0 0.5
kspace_style pppm 0.0001
read_data "system.data"
  orthogonal box = (-10 -10 -10) to (40 40 40)
  reading atoms ...
  1473 atoms
  scanning bonds ...
  scanning angles ...
  reading bonds ...
  662 bonds
  reading angles ...
  331 angles
include "system.in.settings"
pair_coeff 1 1 eam Cu_u6.eam
Reading potential file Cu_u6.eam with DATE: 2007-06-11
pair_coeff 2 2 lj/cut/coul/long 0.0067387957 3.16557
pair_coeff 3 3 lj/cut/coul/long 0.0 0.0
pair_coeff 2 3 lj/cut/coul/long 0.0 0.0
pair_coeff 1 2 lj/cut/coul/long 0.2 3.16557
pair_coeff 1 3 lj/cut/coul/long 0.0 0.0
bond_coeff 1 24.0296134082 1.0
angle_coeff 1 1.9847618221 109.47

group gFix id <= 192
192 atoms in group gFix
group gMobile id > 192
1281 atoms in group gMobile

timestep 0.001
thermo_style custom step temp pe etotal press time
thermo 1000
compute mobileTemp gMobile temp
thermo_modify temp mobileTemp

velocity gMobile create 300.0 134113
fix  fxnvt gMobile nvt temp 300.0 300.0 0.1
dump d1 all custom 1000 system.lammpstrj id mol type x y z vx vy vz
run  1000000
PPPM initialization ...
  G vector (1/distance) = 0.218434
  grid = 18 18 18
  stencil order = 5
  estimated absolute RMS force accuracy = 0.000936613
  estimated relative force accuracy = 6.50442e-05
  3d grid and FFT values/proc = 1764 270
  update every 1 steps, delay 10 steps, check yes
Step Temp PotEng TotEng Press Time
0          300   -1684.1916   -1634.5557   -3497.3833            0
Averages over the last 501 of 1001 rows, steps 500000 to 1000000:
Temp PotEng TotEng Press
299.661 -2062.67 -2013.09 -1505.04
Loop time of 1526.9 on 28 procs for 1000000 steps with 1473 atoms

write_data final.data
PPPM initialization ...
  G vector (1/distance) = 0.218434
  grid = 18 18 18
  stencil order = 5
  estimated absolute RMS force accuracy = 0.000936613
  estimated relative force accuracy = 6.50442e-05
  3d grid and FFT values/proc = 1764 270
  update every 1 steps, delay 10 steps, check yes
