LAMMPS (3 Mar 2020)
include "system.in.init"
units real
atom_style full
bond_style harmonic
angle_style harmonic
dihedral_style opls
improper_style harmonic
pair_style lj/cut/coul/long 11.0 11.0
pair_modify mix geometric
special_bonds lj/coul 0.0 0.0 0.5
kspace_style pppm 0.0001
read_data "system.data"
  orthogonal box = (0 0 0) to (50 50 50)
  reading atoms ...
  16712 atoms
  scanning bonds ...
  scanning angles ...
  reading bonds ...
  12534 bonds
  reading angles ...
  12534 angles
include "system.in.settings"
pair_coeff 1 1 0.1554 3.16557
pair_coeff 2 2 0.0 0.0
pair_coeff 3 3 0.066 3.5
pair_coeff 4 4 0.066 3.5
pair_coeff 5 5 0.066 3.5
pair_coeff 6 6 0.066 3.5
pair_coeff 7 7 0.066 3.5
pair_coeff 8 8 0.03 2.5
pair_coeff 9 9 0.076 3.55
pair_coeff 10 10 0.076 3.55
pair_coeff 11 11 0.076 3.55
pair_coeff 12 12 0.03 2.42
pair_coeff 13 13 0.07 3.55
pair_coeff 14 14 0.03 2.42
pair_coeff 15 15 0.07 3.55
pair_coeff 16 16 0.155 3.15365
pair_coeff 17 17 0.0 0.0
pair_coeff 18 18 0.0 0.0
bond_coeff 1 554.1349 1.0
bond_coeff 2 268.0 1.529
bond_coeff 3 340.0 1.09
bond_coeff 4 317.0 1.51
bond_coeff 5 340.0 1.08
bond_coeff 6 549.0 1.34
bond_coeff 7 469.0 1.4
bond_coeff 8 367.0 1.08
bond_coeff 9 317.0 1.51
bond_coeff 10 427.0 1.433
bond_coeff 11 600.0 0.9572
bond_coeff 12 900.0 0.15
angle_coeff 1 45.7696 109.47
angle_coeff 2 58.35 112.7
angle_coeff 3 33.0 107.8
angle_coeff 4 37.5 110.7
angle_coeff 5 35.0 109.5
angle_coeff 6 63.0 112.4
angle_coeff 7 70.0 124.0
angle_coeff 8 35.0 109.5
angle_coeff 9 63.0 114.0
angle_coeff 10 85.0 119.7
angle_coeff 11 63.0 120.0
angle_coeff 12 35.0 120.0
angle_coeff 13 75.0 104.52
angle_coeff 14 50.0 52.26
dihedral_coeff 1 1.3 -0.05 0.2 0.0
dihedral_coeff 2 0.0 0.0 0.3 0.0
dihedral_coeff 3 0.0 0.0 0.3 0.0
dihedral_coeff 4 0.0 0.0 0.366 0.0
dihedral_coeff 5 0.0 0.0 0.462 0.0
dihedral_coeff 6 0.205 -0.531 0.0 0.0
dihedral_coeff 7 0.0 0.0 -0.372 0.0
dihedral_coeff 8 0.0 14.0 0.0 0.0
dihedral_coeff 9 0.0 14.0 0.0 0.0
dihedral_coeff 10 0.205 -0.531 0.0 0.0
dihedral_coeff 11 0.0 0.0 -0.372 0.0
dihedral_coeff 12 1.241 3.353 -0.286 0.0
dihedral_coeff 13 0.0 7.25 0.0 0.0
dihedral_coeff 14 0.0 7.25 0.0 0.0
dihedral_coeff 15 0.0 7.25 0.0 0.0
improper_coeff 1 15.0 0.0
improper_coeff 2 1.0 0.0
timestep 0.1
thermo_style custom step temp pe etotal press time
thermo 1000
fix  fxnvt all rigid/nvt/small molecule temp 300.0 300.0 100
4178 rigid bodies with 16712 atoms
  0.87348 = max distance from body owner to body atom
dump d1 all custom 100 relax.lammpstrj id mol type x y z vx vy vz
run  50000
PPPM initialization ...
  G vector (1/distance) = 0.241446
  grid = 24 24 24
  stencil order = 5
  estimated absolute RMS force accuracy = 0.0362875
  estimated relative force accuracy = 0.000109279
  3d grid and FFT values/proc = 2890 576
  update every 1 steps, delay 10 steps, check yes
Step Temp PotEng TotEng Press Time
0            0     54310.83     54310.83    25172.817            0
Averages over the last 26 of 51 rows, steps 25000 to 50000:
Temp PotEng TotEng Press
301.535 -40966.7 -33457.1 224.299
Loop time of 441.645 on 28 procs for 50000 steps with 16712 atoms

write_data relax.data
PPPM initialization ...
  G vector (1/distance) = 0.241446
  grid = 24 24 24
  stencil order = 5
  estimated absolute RMS force accuracy = 0.0362875
  estimated relative force accuracy = 0.000109279
  3d grid and FFT values/proc = 2890 576

reset_timestep 0
timestep 1
undump d1
dump d2 all custom 1000 system.lammpstrj id mol type x y z vx vy vz
run  1000000
PPPM initialization ...
  G vector (1/distance) = 0.241446
  grid = 24 24 24
  stencil order = 5
  estimated absolute RMS force accuracy = 0.0362875
  estimated relative force accuracy = 0.000109279
  3d grid and FFT values/proc = 2890 576
Step Temp PotEng TotEng Press Time
0    295.99549   -41063.215   -33691.546    1289.2226         5000
Averages over the last 501 of 1001 rows, steps 500000 to 1000000:
Temp PotEng TotEng Press
299.421 -41183 -33726 280.626
Loop time of 9224.95 on 28 procs for 1000000 steps with 16712 atoms

write_data relax.data
PPPM initialization ...
  G vector (1/distance) = 0.241446
  grid = 24 24 24
  stencil order = 5
  estimated absolute RMS force accuracy = 0.0362875
  estimated relative force accuracy = 0.000109279
  3d grid and FFT values/proc = 2890 576
