LAMMPS (29 Sep 2021)
include "system.in.init"
units real
atom_style full
bond_style harmonic
angle_style harmonic
dihedral_style opls
improper_style harmonic
pair_style lj/cut/coul/long 11.0 11.0
pair_modify mix geometric
special_bonds lj/coul 0.0 0.0 0.5
kspace_style pppm 0.0001
read_data "system.data"
Reading data file ...
  orthogonal box = (-25.000000 -25.000000 -25.000000) to (25.000000 25.000000 25.000000)
  reading atoms ...
  10 atoms
  scanning bonds ...
  scanning angles ...
  scanning dihedrals ...
  scanning impropers ...
  reading bonds ...
  9 bonds
  reading angles ...
  10 angles
  reading dihedrals ...
  5 dihedrals
  reading impropers ...
  2 impropers
Finding 1-2 1-3 1-4 neighbors ...
     3 = max # of 1-2 neighbors
     4 = max # of 1-3 neighbors
     6 = max # of 1-4 neighbors
     9 = max # of special neighbors
include "system.in.settings"
pair_coeff 1 1 0 0
pair_coeff 2 2 0.1554 3.165541325
pair_coeff 3 3 0.1554 3.165541325
pair_coeff 4 4 0.1554 3.165541325
pair_coeff 5 5 0.1554 3.165541325
pair_coeff 6 6 0.1554 3.165541325
pair_coeff 7 7 0.1554 3.165541325
pair_coeff 8 8 1.8405E-6 3.302027009
pair_coeff 9 9 1.3298E-6 4.271235724
pair_coeff 10 10 1.8405E-6 3.302027009
pair_coeff 11 11 9.0298E-6 5.264320525
pair_coeff 12 12 9.0298E-6 5.264320525
pair_coeff 13 13 5.0298E-6 5.56669155
pair_coeff 14 14 5.0298E-6 5.561702518
pair_coeff 15 15 9.0298E-6 4.906179241
pair_coeff 16 16 9.0298E-6 4.210120072
pair_coeff 17 17 0.1301 2.350012639
pair_coeff 18 18 0.1 3.334010273
pair_coeff 19 19 0.1 3.831042668
pair_coeff 20 20 0.1 2.871990198
pair_coeff 21 21 0.047 3.816610109
pair_coeff 22 22 0.1001 4.399970589
pair_coeff 23 23 0.1554 3.16557
pair_coeff 24 24 0.0 0.0
pair_coeff 25 25 0.066 3.5
pair_coeff 26 26 0.066 3.5
pair_coeff 27 27 0.066 3.5
pair_coeff 28 28 0.066 3.5
pair_coeff 29 29 0.066 3.5
pair_coeff 30 30 0.03 2.5
pair_coeff 31 31 0.076 3.55
pair_coeff 32 32 0.076 3.55
pair_coeff 33 33 0.076 3.55
pair_coeff 34 34 0.03 2.42
pair_coeff 35 35 0.07 3.55
pair_coeff 36 36 0.03 2.42
pair_coeff 37 37 0.07 3.55
pair_coeff 38 38 0.105 3.75
pair_coeff 39 39 0.21 2.96
pair_coeff 40 40 0.17 3.25
pair_coeff 41 41 0.17 3.25
pair_coeff 42 42 0.17 3.25
pair_coeff 43 43 0.0 0.0
pair_coeff 44 44 0.0 0.0
pair_coeff 45 45 0.105 3.75
pair_coeff 46 46 0.21 2.96
pair_coeff 47 47 0.17 3.0
pair_coeff 48 48 0.0 0.0
pair_coeff 49 49 0.105 3.75
pair_coeff 50 50 0.21 2.96
pair_coeff 51 51 0.066 3.5
pair_coeff 52 52 0.066 3.5
pair_coeff 53 53 0.066 3.5
pair_coeff 54 54 0.066 3.5
pair_coeff 55 55 0.076 3.55
pair_coeff 56 56 0.17 3.25
pair_coeff 57 57 0.066 3.5
pair_coeff 58 58 0.066 3.5
pair_coeff 59 59 0.066 3.5
pair_coeff 60 60 0.066 3.5
pair_coeff 61 61 0.03 2.5
bond_coeff 1 554.1349 1.0
bond_coeff 2 554.1349 1.0
bond_coeff 3 554.1349 1.0
bond_coeff 4 554.1349 1.0
bond_coeff 5 268.0 1.529
bond_coeff 6 340.0 1.09
bond_coeff 7 317.0 1.51
bond_coeff 8 340.0 1.08
bond_coeff 9 549.0 1.34
bond_coeff 10 469.0 1.4
bond_coeff 11 367.0 1.08
bond_coeff 12 317.0 1.51
bond_coeff 13 427.0 1.433
bond_coeff 14 570.0 1.229
bond_coeff 15 317.0 1.522
bond_coeff 16 410.0 1.444
bond_coeff 17 400.0 1.49
bond_coeff 18 490.0 1.335
bond_coeff 19 434.0 1.01
bond_coeff 20 337.0 1.449
bond_coeff 21 450.0 1.364
bond_coeff 22 656.0 1.25
bond_coeff 23 553.0 0.945
bond_coeff 24 367.0 1.471
angle_coeff 1 30.0 109.47
angle_coeff 2 30.0 109.47
angle_coeff 3 30.0 109.47
angle_coeff 4 30.0 109.47
angle_coeff 5 30.0 109.47
angle_coeff 6 30.0 109.47
angle_coeff 7 30.0 109.47
angle_coeff 8 30.0 109.47
angle_coeff 9 30.0 109.47
angle_coeff 10 45.7696 109.47
angle_coeff 11 58.35 112.7
angle_coeff 12 33.0 107.8
angle_coeff 13 37.5 110.7
angle_coeff 14 35.0 109.5
angle_coeff 15 63.0 112.4
angle_coeff 16 70.0 124.0
angle_coeff 17 35.0 120.0
angle_coeff 18 35.0 109.5
angle_coeff 19 63.0 114.0
angle_coeff 20 85.0 119.7
angle_coeff 21 63.0 120.0
angle_coeff 22 35.0 120.0
angle_coeff 23 63.0 111.1
angle_coeff 24 85.0 120.7
angle_coeff 25 85.0 120.0
angle_coeff 26 80.0 120.4
angle_coeff 27 80.0 125.3
angle_coeff 28 80.0 120.4
angle_coeff 29 80.0 122.9
angle_coeff 30 70.0 116.6
angle_coeff 31 70.0 115.5
angle_coeff 32 70.0 115.5
angle_coeff 33 35.0 119.8
angle_coeff 34 35.0 120.0
angle_coeff 35 50.0 121.9
angle_coeff 36 50.0 118.0
angle_coeff 37 38.0 118.4
angle_coeff 38 70.0 108.0
angle_coeff 39 80.0 121.0
angle_coeff 40 35.0 113.0
angle_coeff 41 70.0 117.0
angle_coeff 42 70.0 117.0
angle_coeff 43 70.0 117.0
angle_coeff 44 80.0 126.0
angle_coeff 45 70.0 117.0
angle_coeff 46 70.0 117.0
angle_coeff 47 70.0 117.0
angle_coeff 48 50.0 113.0
angle_coeff 49 80.0 111.2
angle_coeff 50 35.0 109.5
dihedral_coeff 1 1.3 -0.05 0.2 0.0
dihedral_coeff 2 0.0 0.0 0.3 0.0
dihedral_coeff 3 0.0 0.0 0.3 0.0
dihedral_coeff 4 0.0 0.0 0.366 0.0
dihedral_coeff 5 0.0 0.0 0.462 0.0
dihedral_coeff 6 0.205 -0.531 0.0 0.0
dihedral_coeff 7 0.0 0.0 -0.372 0.0
dihedral_coeff 8 0.0 14.0 0.0 0.0
dihedral_coeff 9 0.0 14.0 0.0 0.0
dihedral_coeff 10 0.205 -0.531 0.0 0.0
dihedral_coeff 11 0.0 0.0 -0.372 0.0
dihedral_coeff 12 1.241 3.353 -0.286 0.0
dihedral_coeff 13 0.0 7.25 0.0 0.0
dihedral_coeff 14 0.0 7.25 0.0 0.0
dihedral_coeff 15 0.0 7.25 0.0 0.0
dihedral_coeff 16 -2.06 -0.313 0.315 0.0
dihedral_coeff 17 -1.697 -0.456 0.585 0.0
dihedral_coeff 18 -4.344 -1.714 0.0 0.0
dihedral_coeff 19 0.0 0.0 0.0 0.0
dihedral_coeff 20 0.0 0.546 0.0 0.0
dihedral_coeff 21 2.5 6.0 0.0 0.0
dihedral_coeff 22 0.0 2.1 0.0 0.0
dihedral_coeff 23 0.0 4.9 0.0 0.0
dihedral_coeff 24 0.0 6.089 0.0 0.0
dihedral_coeff 25 0.0 5.0 0.0 0.0
dihedral_coeff 26 2.732 -0.229 0.485 0.0
dihedral_coeff 27 0.0 0.0 0.384 0.0
dihedral_coeff 28 1.438 -0.124 0.264 0.0
dihedral_coeff 29 0.0 0.0 0.302 0.0
improper_coeff 1 15.0 0.0
improper_coeff 2 1.0 0.0

thermo_style custom step temp pe etotal press lx ly lz time
thermo 1000

velocity all create 300.0 134113

fix  fxnvt all nvt temp 300.0 300.0 100.0
timestep 0.001
run  1000
PPPM initialization ...
  G vector (1/distance) = 0.14836662
  grid = 8 8 8
  stencil order = 5
  estimated absolute RMS force accuracy = 0.025991125
  estimated relative force accuracy = 7.82715e-05
  3d grid and FFT values/proc = 1053 128
  update every 1 steps, delay 10 steps, check yes
Step Temp PotEng TotEng Press Lx Ly Lz Time
0          300    28.227935    36.276122   -99.274781           50           50           50            0
Loop time of 0.0403092 on 4 procs for 1000 steps with 10 atoms

write_data relaxed.data
System init for write_data ...
PPPM initialization ...
  G vector (1/distance) = 0.14836662
  grid = 8 8 8
  stencil order = 5
  estimated absolute RMS force accuracy = 0.025991125
  estimated relative force accuracy = 7.82715e-05
  3d grid and FFT values/proc = 1053 128
unfix fxnvt

reset_timestep 0
timestep 1
fix  fxnvt all nvt temp 300.0 300.0 100.0
dump d1 all custom 1000 system.lammpstrj id mol type x y z vx vy vz
run  100000
PPPM initialization ...
  G vector (1/distance) = 0.14836662
  grid = 8 8 8
  stencil order = 5
  estimated absolute RMS force accuracy = 0.025991125
  estimated relative force accuracy = 7.82715e-05
  3d grid and FFT values/proc = 1053 128
Step Temp PotEng TotEng Press Lx Ly Lz Time
0    378.14047    26.131799    36.276284   -99.232143           50           50           50            1
Averages over the last 51 of 101 rows, steps 50000 to 100000:
Temp PotEng TotEng Press Lx Ly Lz
279.286 -23.1144 -15.6219 0.291402 50 50 50
Loop time of 4.04449 on 4 procs for 100000 steps with 10 atoms

write_data final.data
System init for write_data ...
PPPM initialization ...
  G vector (1/distance) = 0.14836662
  grid = 8 8 8
  stencil order = 5
  estimated absolute RMS force accuracy = 0.025991125
  estimated relative force accuracy = 7.82715e-05
  3d grid and FFT values/proc = 1053 128
