LAMMPS (29 Sep 2021)
include "system.in.init"
units metal
atom_style full
pair_style eam
read_data "system.data"
Reading data file ...
  orthogonal box = (-10.000000 -10.000000 -10.000000) to (40.000000 40.000000 40.000000)
  reading atoms ...
  480 atoms
Finding 1-2 1-3 1-4 neighbors ...
     0 = max # of 1-2 neighbors
     0 = max # of 1-3 neighbors
     0 = max # of 1-4 neighbors
     1 = max # of special neighbors
include "system.in.settings"
pair_coeff 1 1 Cu_u6.eam
Reading eam potential file Cu_u6.eam with DATE: 2007-06-11

group gFix id <= 192
192 atoms in group gFix
group gMobile id > 192
288 atoms in group gMobile

timestep 0.001
thermo_style custom step temp pe etotal press time
thermo 1000
compute mobileTemp gMobile temp
thermo_modify temp mobileTemp

velocity gMobile create 300.0 134113
fix  fxnvt gMobile nvt temp 300.0 300.0 0.1
dump d1 all custom 10 system.lammpstrj id mol type x y z vx vy vz
run  50000
  update every 1 steps, delay 10 steps, check yes
Step Temp PotEng TotEng Press Time
0          300   -1528.7766   -1517.6473   -1654.2905            0
Averages over the last 26 of 51 rows, steps 25000 to 50000:
Temp PotEng TotEng Press
298.326 -1521.07 -1510.01 -755.723
Loop time of 14.9359 on 4 procs for 50000 steps with 480 atoms
